# generated using pymatgen
data_Al
_symmetry_space_group_name_H-M   'P 1'
_cell_length_a   4.24151913
_cell_length_b   7.12842088
_cell_length_c   7.73773094
_cell_angle_alpha   90.93092369
_cell_angle_beta   90.17388884
_cell_angle_gamma   90.31303877
_symmetry_Int_Tables_number   1
_chemical_formula_structural   Al
_chemical_formula_sum   Al5
_cell_volume   233.91736312
_cell_formula_units_Z   5
loop_
 _symmetry_equiv_pos_site_id
 _symmetry_equiv_pos_as_xyz
  1  'x, y, z'
loop_
 _atom_site_type_symbol
 _atom_site_label
 _atom_site_symmetry_multiplicity
 _atom_site_fract_x
 _atom_site_fract_y
 _atom_site_fract_z
 _atom_site_occupancy
  Al  Al0  1  0.68014787  0.51493844  0.46676256  1
  Al  Al1  1  0.13316340  0.28590625  0.48890997  1
  Al  Al2  1  0.68988403  0.22233092  0.66662632  1
  Al  Al3  1  0.28627708  0.80407526  0.38578904  1
  Al  Al4  1  0.63365305  0.87386848  0.68762328  1
