# generated using pymatgen
data_Al
_symmetry_space_group_name_H-M   'P 1'
_cell_length_a   6.35677560
_cell_length_b   2.73682971
_cell_length_c   14.80139028
_cell_angle_alpha   89.40586124
_cell_angle_beta   89.34531021
_cell_angle_gamma   89.20513081
_symmetry_Int_Tables_number   1
_chemical_formula_structural   Al
_chemical_formula_sum   Al7
_cell_volume   257.45087449
_cell_formula_units_Z   7
loop_
 _symmetry_equiv_pos_site_id
 _symmetry_equiv_pos_as_xyz
  1  'x, y, z'
loop_
 _atom_site_type_symbol
 _atom_site_label
 _atom_site_symmetry_multiplicity
 _atom_site_fract_x
 _atom_site_fract_y
 _atom_site_fract_z
 _atom_site_occupancy
  Al  Al0  1  0.20697950  0.12104647  0.35499264  1
  Al  Al1  1  0.11003263  0.54764658  0.11048972  1
  Al  Al2  1  0.22437356  0.63853042  0.52315973  1
  Al  Al3  1  0.52220138  0.38752355  0.78263242  1
  Al  Al4  1  0.78347656  0.77147585  0.68575145  1
  Al  Al5  1  0.13653511  0.82230376  0.71438590  1
  Al  Al6  1  0.78741472  0.84214824  0.29841249  1
