# generated using pymatgen
data_Al
_symmetry_space_group_name_H-M   'P 1'
_cell_length_a   6.52535348
_cell_length_b   6.52535348
_cell_length_c   6.52535348
_cell_angle_alpha   90.00000000
_cell_angle_beta   90.00000000
_cell_angle_gamma   90.00000000
_symmetry_Int_Tables_number   1
_chemical_formula_structural   Al
_chemical_formula_sum   Al10
_cell_volume   277.85110460
_cell_formula_units_Z   10
loop_
 _symmetry_equiv_pos_site_id
 _symmetry_equiv_pos_as_xyz
  1  'x, y, z'
loop_
 _atom_site_type_symbol
 _atom_site_label
 _atom_site_symmetry_multiplicity
 _atom_site_fract_x
 _atom_site_fract_y
 _atom_site_fract_z
 _atom_site_occupancy
  Al  Al0  1  0.75334302  0.64504063  0.15065046  1
  Al  Al1  1  0.13534734  0.89519250  0.78176691  1
  Al  Al2  1  0.13707337  0.36962336  0.72846554  1
  Al  Al3  1  0.36318201  0.30426798  0.41916905  1
  Al  Al4  1  0.69016502  0.35160021  0.44463111  1
  Al  Al5  1  0.43766477  0.64908933  0.56331127  1
  Al  Al6  1  0.20026180  0.50879803  0.12596005  1
  Al  Al7  1  0.66262527  0.47463119  0.79282560  1
  Al  Al8  1  0.33200144  0.16307791  0.80581020  1
  Al  Al9  1  0.84188811  0.75171028  0.82220136  1
